
Note: No compatibility mode selected!


Circuit: *include "/root/chiploop-backend/artifacts/3c6dfa47-ba1d-4be5-857c-c60b38fc0ff6/51309899-ca8a-4d6b-9dea-fe920ed5245a/dcd843f9-fbf5-4346-87d3-d80a96d61c3d/digital/analog/lib_char/temp_sensor_adc_model.spice

Doing analysis at TEMP = 27.000000 and TNOM = 27.000000

Using SPARSE 1.3 as Direct Linear Solver
 Reference value :  0.00000e+00
No. of Data Rows : 1
binary raw file "op.raw"
ngspice-44.2 done
