
Note: No compatibility mode selected!


Circuit: *include "/root/chiploop-backend/artifacts/3c6dfa47-ba1d-4be5-857c-c60b38fc0ff6/a276fe94-5253-47b7-8ecc-34ee2c78817c/3e47c6ea-bdee-4a3a-acfe-3193056b82c1/digital/analog/lib_char/temp_sensor_adc_model.spice

Doing analysis at TEMP = 27.000000 and TNOM = 27.000000

Using SPARSE 1.3 as Direct Linear Solver
 Reference value :  0.00000e+00
No. of Data Rows : 1
binary raw file "op.raw"
ngspice-44.2 done
