
Note: No compatibility mode selected!


Circuit: *include "/root/chiploop-backend/artifacts/3c6dfa47-ba1d-4be5-857c-c60b38fc0ff6/4277d2cf-725a-4295-96ed-62c59855efb8/f4c7b80f-2041-4bb7-bc2d-6985967fe443/digital/analog/lib_char/temp_sensor_adc_model.spice

Doing analysis at TEMP = 27.000000 and TNOM = 27.000000

Using SPARSE 1.3 as Direct Linear Solver
 Reference value :  0.00000e+00
No. of Data Rows : 1
binary raw file "op.raw"
ngspice-44.2 done
