
Note: No compatibility mode selected!


Circuit: *include "/root/chiploop-backend/artifacts/3c6dfa47-ba1d-4be5-857c-c60b38fc0ff6/26f356cb-6d29-43be-a1da-649876540ea6/6d479abf-c006-4bf3-b6cb-21bcf6d57fc4/digital/analog/lib_char/temp_sensor_adc_model.spice

Doing analysis at TEMP = 27.000000 and TNOM = 27.000000

Using SPARSE 1.3 as Direct Linear Solver
 Reference value :  0.00000e+00
No. of Data Rows : 1
binary raw file "op.raw"
ngspice-44.2 done
